
     RDKit          3D

 52 54  0  0  0  0  0  0  0  0999 V2000
   -4.5394    5.3077   -0.5552 C   0  0  0  0  0  0  0  0  0  0  0  0
   -4.8234    3.9949   -0.0883 O   0  0  0  0  0  0  0  0  0  0  0  0
   -3.8607    3.0524   -0.5591 C   0  0  0  0  0  0  0  0  0  0  0  0
   -4.2215    1.6633   -0.0385 C   0  0  0  0  0  0  0  0  0  0  0  0
   -3.3182    0.6672   -0.5150 O   0  0  0  0  0  0  0  0  0  0  0  0
   -2.0861    0.5447    0.0642 C   0  0  0  0  0  0  0  0  0  0  0  0
   -1.7188    1.1045    1.2908 C   0  0  0  0  0  0  0  0  0  0  0  0
   -0.4360    0.9683    1.8157 C   0  0  0  0  0  0  0  0  0  0  0  0
   -0.1753    1.5315    2.9952 N   0  0  0  0  0  0  0  0  0  0  0  0
    1.0631    1.3774    3.4758 C   0  0  0  0  0  0  0  0  0  0  0  0
    2.0661    0.7273    2.8810 N   0  0  0  0  0  0  0  0  0  0  0  0
    1.8058    0.1726    1.6862 C   0  0  0  0  0  0  0  0  0  0  0  0
    2.8357   -0.5217    0.9954 N   0  0  0  0  0  0  0  0  0  0  0  0
    4.0919   -0.9631    1.4687 C   0  0  0  0  0  0  0  0  0  0  0  0
    4.3397   -1.2614    2.8136 C   0  0  0  0  0  0  0  0  0  0  0  0
    5.5747   -1.7699    3.2286 C   0  0  0  0  0  0  0  0  0  0  0  0
    6.5752   -2.0176    2.2947 C   0  0  0  0  0  0  0  0  0  0  0  0
    6.3355   -1.7683    0.9442 C   0  0  0  0  0  0  0  0  0  0  0  0
    7.3432   -2.0610   -0.0284 C   0  0  0  0  0  0  0  0  0  0  0  0
    8.1820   -2.3247   -0.8476 C   0  0  0  0  0  0  0  0  0  0  0  0
    5.1004   -1.2532    0.5358 C   0  0  0  0  0  0  0  0  0  0  0  0
    0.5280    0.2538    1.0938 C   0  0  0  0  0  0  0  0  0  0  0  0
    0.1634   -0.3308   -0.1402 C   0  0  0  0  0  0  0  0  0  0  0  0
   -1.1329   -0.2011   -0.6358 C   0  0  0  0  0  0  0  0  0  0  0  0
   -1.3583   -0.7612   -1.8667 O   0  0  0  0  0  0  0  0  0  0  0  0
   -2.3421   -1.8068   -1.8237 C   0  0  0  0  0  0  0  0  0  0  0  0
   -2.0826   -2.7625   -2.9906 C   0  0  0  0  0  0  0  0  0  0  0  0
   -2.3274   -2.1536   -4.2673 O   0  0  0  0  0  0  0  0  0  0  0  0
   -3.7019   -2.1496   -4.6359 C   0  0  0  0  0  0  0  0  0  0  0  0
   -3.5654    5.6411   -0.1872 H   0  0  0  0  0  0  0  0  0  0  0  0
   -4.5615    5.3401   -1.6481 H   0  0  0  0  0  0  0  0  0  0  0  0
   -5.3070    5.9838   -0.1721 H   0  0  0  0  0  0  0  0  0  0  0  0
   -2.8621    3.3451   -0.2185 H   0  0  0  0  0  0  0  0  0  0  0  0
   -3.8490    3.0442   -1.6552 H   0  0  0  0  0  0  0  0  0  0  0  0
   -4.3413    1.6395    1.0502 H   0  0  0  0  0  0  0  0  0  0  0  0
   -5.2133    1.3993   -0.4264 H   0  0  0  0  0  0  0  0  0  0  0  0
   -2.4280    1.6716    1.8878 H   0  0  0  0  0  0  0  0  0  0  0  0
    1.2709    1.8212    4.4445 H   0  0  0  0  0  0  0  0  0  0  0  0
    2.8994   -0.1673    0.0444 H   0  0  0  0  0  0  0  0  0  0  0  0
    3.5686   -1.1124    3.5613 H   0  0  0  0  0  0  0  0  0  0  0  0
    5.7453   -1.9839    4.2798 H   0  0  0  0  0  0  0  0  0  0  0  0
    7.5301   -2.4204    2.6228 H   0  0  0  0  0  0  0  0  0  0  0  0
    8.9239   -2.5662   -1.5740 H   0  0  0  0  0  0  0  0  0  0  0  0
    4.9253   -1.0838   -0.5247 H   0  0  0  0  0  0  0  0  0  0  0  0
    0.8826   -0.9047   -0.7193 H   0  0  0  0  0  0  0  0  0  0  0  0
   -2.2720   -2.3741   -0.8833 H   0  0  0  0  0  0  0  0  0  0  0  0
   -3.3386   -1.3603   -1.9106 H   0  0  0  0  0  0  0  0  0  0  0  0
   -1.0253   -3.0562   -2.9865 H   0  0  0  0  0  0  0  0  0  0  0  0
   -2.6873   -3.6801   -2.8891 H   0  0  0  0  0  0  0  0  0  0  0  0
   -4.0718   -3.1789   -4.7239 H   0  0  0  0  0  0  0  0  0  0  0  0
   -3.7975   -1.6624   -5.6139 H   0  0  0  0  0  0  0  0  0  0  0  0
   -4.3059   -1.5943   -3.9155 H   0  0  0  0  0  0  0  0  0  0  0  0
  1  2  1  0
  2  3  1  0
  3  4  1  0
  4  5  1  0
  5  6  1  0
  6  7  2  0
  7  8  1  0
  8  9  2  0
  9 10  1  0
 10 11  2  0
 11 12  1  0
 12 13  1  0
 13 14  1  0
 14 15  2  0
 15 16  1  0
 16 17  2  0
 17 18  1  0
 18 19  1  0
 19 20  3  0
 18 21  2  0
 12 22  2  0
 22 23  1  0
 23 24  2  0
 24 25  1  0
 25 26  1  0
 26 27  1  0
 27 28  1  0
 28 29  1  0
 24  6  1  0
 22  8  1  0
 21 14  1  0
  1 30  1  0
  1 31  1  0
  1 32  1  0
  3 33  1  0
  3 34  1  0
  4 35  1  0
  4 36  1  0
  7 37  1  0
 10 38  1  0
 13 39  1  0
 15 40  1  0
 16 41  1  0
 17 42  1  0
 20 43  1  0
 21 44  1  0
 23 45  1  0
 26 46  1  0
 26 47  1  0
 27 48  1  0
 27 49  1  0
 29 50  1  0
 29 51  1  0
 29 52  1  0
M  END
