AQ4_1M17_final_best_pose
     RDKit          3D

 52 54  0  0  0  0  0  0  0  0999 V2000
   30.7170    5.5280   47.7580 C   0  0  0  0  0  0  0  0  0  0  0  0
   29.5470    5.5620   48.0320 C   0  0  0  0  0  0  0  0  0  0  0  0
   28.1600    5.6080   48.3800 C   0  0  0  0  0  0  0  0  0  0  0  0
   27.4270    6.7760   48.1720 C   0  0  0  0  0  0  0  0  0  0  0  0
   26.0910    6.8270   48.5520 C   0  0  0  0  0  0  0  0  0  0  0  0
   25.4840    5.7070   49.1290 C   0  0  0  0  0  0  0  0  0  0  0  0
   26.1880    4.5110   49.3080 C   0  0  0  0  0  0  0  0  0  0  0  0
   25.6390    3.3810   49.9560 N   0  0  0  0  0  0  0  0  0  0  0  0
   24.2850    2.9560   50.0310 C   0  0  0  0  0  0  0  0  0  0  0  0
   23.3810    3.4670   49.1800 N   0  0  0  0  0  0  0  0  0  0  0  0
   22.1280    3.0200   49.2900 C   0  0  0  0  0  0  0  0  0  0  0  0
   21.6870    2.1090   50.1640 N   0  0  0  0  0  0  0  0  0  0  0  0
   22.5820    1.6140   51.0190 C   0  0  0  0  0  0  0  0  0  0  0  0
   22.1520    0.6690   51.9470 C   0  0  0  0  0  0  0  0  0  0  0  0
   23.0180    0.0970   52.8840 C   0  0  0  0  0  0  0  0  0  0  0  0
   22.6620   -0.8530   53.8010 O   0  0  0  0  0  0  0  0  0  0  0  0
   21.4820   -0.6670   54.5800 C   0  0  0  0  0  0  0  0  0  0  0  0
   20.3270   -1.5270   54.0750 C   0  0  0  0  0  0  0  0  0  0  0  0
   19.2680   -0.6790   53.6310 O   0  0  0  0  0  0  0  0  0  0  0  0
   18.1170   -1.4290   53.2640 C   0  0  0  0  0  0  0  0  0  0  0  0
   24.3500    0.5190   52.9000 C   0  0  0  0  0  0  0  0  0  0  0  0
   25.3030    0.0030   53.7390 O   0  0  0  0  0  0  0  0  0  0  0  0
   26.0320   -1.0830   53.1430 C   0  0  0  0  0  0  0  0  0  0  0  0
   27.5280   -0.7830   53.2610 C   0  0  0  0  0  0  0  0  0  0  0  0
   27.9090   -0.3950   54.5890 O   0  0  0  0  0  0  0  0  0  0  0  0
   28.8730    0.6520   54.6150 C   0  0  0  0  0  0  0  0  0  0  0  0
   24.8060    1.4470   51.9650 C   0  0  0  0  0  0  0  0  0  0  0  0
   23.9260    2.0060   51.0100 C   0  0  0  0  0  0  0  0  0  0  0  0
   27.5460    4.4890   48.9520 C   0  0  0  0  0  0  0  0  0  0  0  0
   31.7876    5.4969   47.5073 H   0  0  0  0  0  0  0  0  0  0  0  0
   27.9039    7.6527   47.7094 H   0  0  0  0  0  0  0  0  0  0  0  0
   25.5108    7.7489   48.3988 H   0  0  0  0  0  0  0  0  0  0  0  0
   24.4331    5.7674   49.4482 H   0  0  0  0  0  0  0  0  0  0  0  0
   26.2410    2.5670   49.8620 H   0  0  0  0  0  0  0  0  0  0  0  0
   21.3870    3.4416   48.5949 H   0  0  0  0  0  0  0  0  0  0  0  0
   21.0957    0.3622   51.9428 H   0  0  0  0  0  0  0  0  0  0  0  0
   21.6981   -0.9387   55.6238 H   0  0  0  0  0  0  0  0  0  0  0  0
   21.1825    0.3884   54.4996 H   0  0  0  0  0  0  0  0  0  0  0  0
   20.6725   -2.1523   53.2386 H   0  0  0  0  0  0  0  0  0  0  0  0
   19.9656   -2.1738   54.8880 H   0  0  0  0  0  0  0  0  0  0  0  0
   17.5959   -1.7685   54.1713 H   0  0  0  0  0  0  0  0  0  0  0  0
   17.4420   -0.7968   52.6684 H   0  0  0  0  0  0  0  0  0  0  0  0
   18.4227   -2.3018   52.6684 H   0  0  0  0  0  0  0  0  0  0  0  0
   25.7984   -2.0203   53.6693 H   0  0  0  0  0  0  0  0  0  0  0  0
   25.7506   -1.1915   52.0851 H   0  0  0  0  0  0  0  0  0  0  0  0
   28.0916   -1.6856   52.9821 H   0  0  0  0  0  0  0  0  0  0  0  0
   27.7534    0.0589   52.5899 H   0  0  0  0  0  0  0  0  0  0  0  0
   29.1085    0.9078   55.6586 H   0  0  0  0  0  0  0  0  0  0  0  0
   29.7885    0.3203   54.1032 H   0  0  0  0  0  0  0  0  0  0  0  0
   28.4670    1.5370   54.1032 H   0  0  0  0  0  0  0  0  0  0  0  0
   25.8640    1.7482   51.9703 H   0  0  0  0  0  0  0  0  0  0  0  0
   28.1364    3.5773   49.1257 H   0  0  0  0  0  0  0  0  0  0  0  0
  1  2  3  0
  2  3  1  0
  3  4  1  0
  4  5  2  0
  5  6  1  0
  6  7  2  0
  7  8  1  0
  8  9  1  0
  9 10  1  0
 10 11  2  0
 11 12  1  0
 12 13  2  0
 13 14  1  0
 14 15  2  0
 15 16  1  0
 16 17  1  0
 17 18  1  0
 18 19  1  0
 19 20  1  0
 15 21  1  0
 21 22  1  0
 22 23  1  0
 23 24  1  0
 24 25  1  0
 25 26  1  0
 21 27  2  0
 27 28  1  0
  7 29  1  0
 29  3  2  0
 28  9  2  0
 28 13  1  0
  1 30  1  0
  4 31  1  0
  5 32  1  0
  6 33  1  0
  8 34  1  0
 11 35  1  0
 14 36  1  0
 17 37  1  0
 17 38  1  0
 18 39  1  0
 18 40  1  0
 20 41  1  0
 20 42  1  0
 20 43  1  0
 23 44  1  0
 23 45  1  0
 24 46  1  0
 24 47  1  0
 26 48  1  0
 26 49  1  0
 26 50  1  0
 27 51  1  0
 29 52  1  0
M  END
>  <meeko>  (1) 
{"is_sidechain": [false], "free_energy": -7.672, "intermolecular_energy": -12.157, "internal_energy": -0.588}

$$$$
