AQ4
     RDKit          3D

 29 31  0  0  0  0  0  0  0  0999 V2000
   29.5520   -1.9890   53.4960 C   0  0  0  0  0  0  0  0  0  0  0  0
   28.8410   -1.0220   53.4320 C   0  0  0  0  0  0  0  0  0  0  0  0
   27.9890    0.0940   53.3660 C   0  0  0  0  0  0  0  0  0  0  0  0
   26.6060   -0.1190   53.3230 C   0  0  0  0  0  0  0  0  0  0  0  0
   25.7250    0.9720   53.2580 C   0  0  0  0  0  0  0  0  0  0  0  0
   24.2890    0.7120   53.2150 N   0  0  0  0  0  0  0  0  0  0  0  0
   23.4100   -0.2170   53.9080 C   0  0  0  0  0  0  0  0  0  0  0  0
   22.0370   -0.3090   53.5720 C   0  0  0  0  0  0  0  0  0  0  0  0
   21.5010    0.4760   52.5460 C   0  0  0  0  0  0  0  0  0  0  0  0
   20.1430    0.3760   52.2180 C   0  0  0  0  0  0  0  0  0  0  0  0
   19.5890    1.2200   51.1200 O   0  0  0  0  0  0  0  0  0  0  0  0
   20.5500    1.3620   50.0410 C   0  0  0  0  0  0  0  0  0  0  0  0
   20.2350    2.6450   49.2620 C   0  0  0  0  0  0  0  0  0  0  0  0
   18.9900    2.4850   48.5430 O   0  0  0  0  0  0  0  0  0  0  0  0
   17.7120    2.6180   49.3990 C   0  0  0  0  0  0  0  0  0  0  0  0
   19.3010   -0.5350   52.9230 C   0  0  0  0  0  0  0  0  0  0  0  0
   17.8280   -0.6790   52.5970 O   0  0  0  0  0  0  0  0  0  0  0  0
   17.2270    0.6010   52.2200 C   0  0  0  0  0  0  0  0  0  0  0  0
   15.7030    0.4940   52.0660 C   0  0  0  0  0  0  0  0  0  0  0  0
   15.1080    0.1670   53.3350 O   0  0  0  0  0  0  0  0  0  0  0  0
   13.8430   -0.6950   53.2210 C   0  0  0  0  0  0  0  0  0  0  0  0
   19.8450   -1.3180   53.9420 C   0  0  0  0  0  0  0  0  0  0  0  0
   21.1990   -1.2220   54.2640 C   0  0  0  0  0  0  0  0  0  0  0  0
   21.7470   -2.0390   55.3190 N   0  0  0  0  0  0  0  0  0  0  0  0
   23.1170   -1.9340   55.6420 C   0  0  0  0  0  0  0  0  0  0  0  0
   23.9430   -1.0230   54.9400 N   0  0  0  0  0  0  0  0  0  0  0  0
   26.2340    2.2920   53.2360 C   0  0  0  0  0  0  0  0  0  0  0  0
   27.6250    2.5090   53.2790 C   0  0  0  0  0  0  0  0  0  0  0  0
   28.5080    1.4100   53.3440 C   0  0  0  0  0  0  0  0  0  0  0  0
  1  2  3  0
  2  3  1  0
  3  4  2  0
  3 29  1  0
  4  5  1  0
  5  6  1  0
  5 27  2  0
  6  7  1  0
  7  8  2  0
  7 26  1  0
  8  9  1  0
  8 23  1  0
  9 10  2  0
 10 11  1  0
 10 16  1  0
 11 12  1  0
 12 13  1  0
 13 14  1  0
 14 15  1  0
 16 17  1  0
 16 22  2  0
 17 18  1  0
 18 19  1  0
 19 20  1  0
 20 21  1  0
 22 23  1  0
 23 24  2  0
 24 25  1  0
 25 26  2  0
 27 28  1  0
 28 29  2  0
M  END
>  <model_server_result.job_id>  (1) 
ATsfYyvBEmrJcIq-9nvXCA

>  <model_server_result.datetime_utc>  (1) 
2026-09-27 22:03:06

>  <model_server_result.server_version>  (1) 
0.9.13

>  <model_server_result.query_name>  (1) 
ligand

>  <model_server_result.source_id>  (1) 
pdb-bcif

>  <model_server_result.entry_id>  (1) 
1M17

>  <model_server_params.name>  (1) 
atom_site

>  <model_server_params.value>  (1) 
{"auth_asym_id":"A","auth_seq_id":999}

>  <model_server_stats.io_time_ms>  (1) 
20

>  <model_server_stats.parse_time_ms>  (1) 
4

>  <model_server_stats.create_model_time_ms>  (1) 
2

>  <model_server_stats.query_time_ms>  (1) 
182

>  <model_server_stats.encode_time_ms>  (1) 
0

>  <model_server_stats.element_count>  (1) 
29

$$$$
AQ4_1M17_final_best_pose
     RDKit          3D

 29 31  0  0  0  0  0  0  0  0999 V2000
   29.4908    2.2400   51.9286 C   0  0  0  0  0  0  0  0  0  0  0  0
   28.6964    1.4723   52.4026 C   0  0  0  0  0  0  0  0  0  0  0  0
   27.7475    0.5494   52.9456 C   0  0  0  0  0  0  0  0  0  0  0  0
   28.1836   -0.6516   53.5044 C   0  0  0  0  0  0  0  0  0  0  0  0
   27.2531   -1.5621   53.9912 C   0  0  0  0  0  0  0  0  0  0  0  0
   25.8873   -1.2675   53.9306 C   0  0  0  0  0  0  0  0  0  0  0  0
   25.4292   -0.0507   53.4135 C   0  0  0  0  0  0  0  0  0  0  0  0
   24.0579    0.2569   53.2617 N   0  0  0  0  0  0  0  0  0  0  0  0
   22.9450   -0.1934   54.0222 C   0  0  0  0  0  0  0  0  0  0  0  0
   23.1469   -0.7571   55.2239 N   0  0  0  0  0  0  0  0  0  0  0  0
   22.0627   -1.1486   55.8971 C   0  0  0  0  0  0  0  0  0  0  0  0
   20.7940   -1.0298   55.4913 N   0  0  0  0  0  0  0  0  0  0  0  0
   20.5955   -0.4845   54.2912 C   0  0  0  0  0  0  0  0  0  0  0  0
   19.2857   -0.3542   53.8369 C   0  0  0  0  0  0  0  0  0  0  0  0
   18.9810    0.2026   52.5910 C   0  0  0  0  0  0  0  0  0  0  0  0
   17.7166    0.3813   52.1017 O   0  0  0  0  0  0  0  0  0  0  0  0
   16.7808   -0.6927   52.1702 C   0  0  0  0  0  0  0  0  0  0  0  0
   15.7688   -0.4931   53.2947 C   0  0  0  0  0  0  0  0  0  0  0  0
   15.9119   -1.5451   54.2489 O   0  0  0  0  0  0  0  0  0  0  0  0
   14.9104   -1.4769   55.2560 C   0  0  0  0  0  0  0  0  0  0  0  0
   20.0364    0.6095   51.7706 C   0  0  0  0  0  0  0  0  0  0  0  0
   19.8657    1.2083   50.5496 O   0  0  0  0  0  0  0  0  0  0  0  0
   19.8565    2.6430   50.6361 C   0  0  0  0  0  0  0  0  0  0  0  0
   20.8805    3.1935   49.6409 C   0  0  0  0  0  0  0  0  0  0  0  0
   20.7412    2.6197   48.3330 O   0  0  0  0  0  0  0  0  0  0  0  0
   21.9876    2.3523   47.6997 C   0  0  0  0  0  0  0  0  0  0  0  0
   21.3536    0.5088   52.2158 C   0  0  0  0  0  0  0  0  0  0  0  0
   21.6499   -0.0393   53.4849 C   0  0  0  0  0  0  0  0  0  0  0  0
   26.3806    0.8413   52.8932 C   0  0  0  0  0  0  0  0  0  0  0  0
  1  2  3  0
  2  3  1  0
  3  4  1  0
  4  5  2  0
  5  6  1  0
  6  7  2  0
  7  8  1  0
  8  9  1  0
  9 10  1  0
 10 11  2  0
 11 12  1  0
 12 13  2  0
 13 14  1  0
 14 15  2  0
 15 16  1  0
 16 17  1  0
 17 18  1  0
 18 19  1  0
 19 20  1  0
 15 21  1  0
 21 22  1  0
 22 23  1  0
 23 24  1  0
 24 25  1  0
 25 26  1  0
 21 27  2  0
 27 28  1  0
  7 29  1  0
 29  3  2  0
 28  9  2  0
 28 13  1  0
M  END
>  <meeko>  (2) 
{"is_sidechain": [false], "free_energy": -7.672, "intermolecular_energy": -12.157, "internal_energy": -0.588}

$$$$
